
     RDKit          3D

 33 34  0  0  0  0  0  0  0  0999 V2000
   -1.0830   -0.0453   -1.0419 O   0  0  0  0  0  0  0  0  0  0  0  0
   -1.1502   -0.6041    0.0868 C   0  0  0  0  0  0  0  0  0  0  0  0
   -2.4277   -0.8746    0.6840 N   0  0  0  0  0  0  0  0  0  0  0  0
   -3.6681   -0.3068    0.2289 C   0  0  0  0  0  0  0  0  0  0  0  0
   -4.8533   -1.0482    0.3600 C   0  0  0  0  0  0  0  0  0  0  0  0
   -6.0752   -0.5094   -0.0546 C   0  0  0  0  0  0  0  0  0  0  0  0
   -6.1262    0.7802   -0.5895 C   0  0  0  0  0  0  0  0  0  0  0  0
   -4.9565    1.5358   -0.7029 C   0  0  0  0  0  0  0  0  0  0  0  0
   -3.7322    1.0002   -0.2902 C   0  0  0  0  0  0  0  0  0  0  0  0
    0.0458   -1.0494    0.7447 N   0  0  0  0  0  0  0  0  0  0  0  0
    1.3744   -0.6639    0.3518 C   0  0  0  0  0  0  0  0  0  0  0  0
    1.6470    0.6186   -0.1579 C   0  0  0  0  0  0  0  0  0  0  0  0
    2.9520    0.9761   -0.5097 C   0  0  0  0  0  0  0  0  0  0  0  0
    4.0016    0.0624   -0.3500 C   0  0  0  0  0  0  0  0  0  0  0  0
    3.7393   -1.2047    0.1859 C   0  0  0  0  0  0  0  0  0  0  0  0
    2.4350   -1.5630    0.5390 C   0  0  0  0  0  0  0  0  0  0  0  0
    5.6476    0.5206   -0.7765 S   0  0  0  0  0  0  0  0  0  0  0  0
    6.4182   -0.6951   -1.2093 O   0  0  0  0  0  0  0  0  0  0  0  0
    5.6235    1.5044   -1.9126 O   0  0  0  0  0  0  0  0  0  0  0  0
    6.4235    1.2383    0.5911 N   0  0  0  0  0  0  0  0  0  0  0  0
   -2.4647   -1.5858    1.4489 H   0  0  0  0  0  0  0  0  0  0  0  0
   -4.8271   -2.0480    0.7749 H   0  0  0  0  0  0  0  0  0  0  0  0
   -6.9829   -1.0911    0.0410 H   0  0  0  0  0  0  0  0  0  0  0  0
   -7.0729    1.1971   -0.9079 H   0  0  0  0  0  0  0  0  0  0  0  0
   -4.9996    2.5408   -1.1023 H   0  0  0  0  0  0  0  0  0  0  0  0
   -2.8456    1.6168   -0.3534 H   0  0  0  0  0  0  0  0  0  0  0  0
   -0.0549   -1.7556    1.5085 H   0  0  0  0  0  0  0  0  0  0  0  0
    0.8602    1.3541   -0.2588 H   0  0  0  0  0  0  0  0  0  0  0  0
    3.1446    1.9691   -0.8955 H   0  0  0  0  0  0  0  0  0  0  0  0
    4.5435   -1.9138    0.3352 H   0  0  0  0  0  0  0  0  0  0  0  0
    2.2482   -2.5463    0.9520 H   0  0  0  0  0  0  0  0  0  0  0  0
    6.3806    0.5402    1.3670 H   0  0  0  0  0  0  0  0  0  0  0  0
    5.8351    2.0503    0.8841 H   0  0  0  0  0  0  0  0  0  0  0  0
  1  2  2  0
  2  3  1  0
  3  4  1  0
  4  5  2  0
  5  6  1  0
  6  7  2  0
  7  8  1  0
  8  9  2  0
  2 10  1  0
 10 11  1  0
 11 12  2  0
 12 13  1  0
 13 14  2  0
 14 15  1  0
 15 16  2  0
 14 17  1  0
 17 18  2  0
 17 19  2  0
 17 20  1  0
  9  4  1  0
 16 11  1  0
  3 21  1  0
  5 22  1  0
  6 23  1  0
  7 24  1  0
  8 25  1  0
  9 26  1  0
 10 27  1  0
 12 28  1  0
 13 29  1  0
 15 30  1  0
 16 31  1  0
 20 32  1  0
 20 33  1  0
M  END
$$$$
